<?xml version="1.0" ?>
<!DOCTYPE population
  SYSTEM 'http://www.matsim.org/files/dtd/population_v6.dtd'>
<population>
	<person id="0">
		<attributes>
			<attribute name="rangeAnxietyThreshold" class="java.lang.String">0.2</attribute>
		</attributes>
		<plan score="0.0" selected="yes">
			<activity type="home" x="4459073.5" y="5335922.5" end_time="12:56:11"/>
			<leg mode="car"/>
			<activity type="work" x="4468862.5" y="5334495.5" end_time="22:20:37"/>
			<leg mode="car"/>
			<activity type="home" x="4459073.5" y="5335922.5" end_time="36:56:11"/>
			<leg mode="car"/>
			<activity type="work" x="4468862.5" y="5334495.5" end_time="46:20:37"/>
			<leg mode="car"/>
			<activity type="home" x="4459073.5" y="5335922.5" end_time="60:56:11"/>
			<leg mode="car"/>
			<activity type="work" x="4468862.5" y="5334495.5" end_time="70:20:37"/>
			<leg mode="car"/>
			<activity type="home" x="4459073.5" y="5335922.5" end_time="84:56:11"/>
			<leg mode="car"/>
			<activity type="work" x="4468862.5" y="5334495.5" end_time="94:20:37"/>
			<leg mode="car"/>
			<activity type="home" x="4459073.5" y="5335922.5" end_time="108:56:11"/>
			<leg mode="car"/>
			<activity type="work" x="4468862.5" y="5334495.5" end_time="118:20:37"/>
			<leg mode="car"/>
			<activity type="home" x="4459073.5" y="5335922.5" end_time="132:56:11"/>
			<leg mode="car"/>
			<activity type="work" x="4468862.5" y="5334495.5" end_time="142:20:37"/>
			<leg mode="car"/>
			<activity type="home" x="4459073.5" y="5335922.5" end_time="156:56:11"/>
			<leg mode="car"/>
			<activity type="work" x="4468862.5" y="5334495.5" end_time="166:20:37"/>
			<leg mode="car"/>
			<activity type="home" x="4459073.5" y="5335922.5" end_time="180:56:11"/>
			<leg mode="car"/>
			<activity type="work" x="4468862.5" y="5334495.5" end_time="190:20:37"/>
			<leg mode="car"/>
			<activity type="home" x="4459073.5" y="5335922.5" end_time="204:56:11"/>
			<leg mode="car"/>
			<activity type="work" x="4468862.5" y="5334495.5" end_time="214:20:37"/>
			<leg mode="car"/>
			<activity type="home" x="4459073.5" y="5335922.5" end_time="228:56:11"/>
			<leg mode="car"/>
			<activity type="work" x="4468862.5" y="5334495.5" end_time="238:20:37"/>
			<leg mode="car"/>
			<activity type="home end" x="4459073.5" y="5335922.5"/>
		</plan>
	</person>
	<person id="1">
		<attributes>
			<attribute name="homeChargerPower" class="java.lang.String">11</attribute>
			<attribute name="rangeAnxietyThreshold" class="java.lang.String">0.2</attribute>
		</attributes>
		<plan score="0.0" selected="yes">
			<activity type="home" x="4478023.5" y="5330954.0" end_time="14:26:27"/>
			<leg mode="car"/>
			<activity type="work" x="4458101.5" y="5337673.0" end_time="23:25:58"/>
			<leg mode="car"/>
			<activity type="home" x="4478023.5" y="5330954.0" end_time="38:26:27"/>
			<leg mode="car"/>
			<activity type="work" x="4458101.5" y="5337673.0" end_time="47:25:58"/>
			<leg mode="car"/>
			<activity type="home" x="4478023.5" y="5330954.0" end_time="62:26:27"/>
			<leg mode="car"/>
			<activity type="work" x="4458101.5" y="5337673.0" end_time="71:25:58"/>
			<leg mode="car"/>
			<activity type="home" x="4478023.5" y="5330954.0" end_time="86:26:27"/>
			<leg mode="car"/>
			<activity type="work" x="4458101.5" y="5337673.0" end_time="95:25:58"/>
			<leg mode="car"/>
			<activity type="home" x="4478023.5" y="5330954.0" end_time="110:26:27"/>
			<leg mode="car"/>
			<activity type="work" x="4458101.5" y="5337673.0" end_time="119:25:58"/>
			<leg mode="car"/>
			<activity type="home" x="4478023.5" y="5330954.0" end_time="134:26:27"/>
			<leg mode="car"/>
			<activity type="work" x="4458101.5" y="5337673.0" end_time="143:25:58"/>
			<leg mode="car"/>
			<activity type="home" x="4478023.5" y="5330954.0" end_time="158:26:27"/>
			<leg mode="car"/>
			<activity type="work" x="4458101.5" y="5337673.0" end_time="167:25:58"/>
			<leg mode="car"/>
			<activity type="home" x="4478023.5" y="5330954.0" end_time="182:26:27"/>
			<leg mode="car"/>
			<activity type="work" x="4458101.5" y="5337673.0" end_time="191:25:58"/>
			<leg mode="car"/>
			<activity type="home" x="4478023.5" y="5330954.0" end_time="206:26:27"/>
			<leg mode="car"/>
			<activity type="work" x="4458101.5" y="5337673.0" end_time="215:25:58"/>
			<leg mode="car"/>
			<activity type="home" x="4478023.5" y="5330954.0" end_time="230:26:27"/>
			<leg mode="car"/>
			<activity type="work" x="4458101.5" y="5337673.0" end_time="239:25:58"/>
			<leg mode="car"/>
			<activity type="home end" x="4478023.5" y="5330954.0"/>
		</plan>
	</person>
	<person id="2">
		<attributes>
			<attribute name="homeChargerPower" class="java.lang.String">11</attribute>
			<attribute name="rangeAnxietyThreshold" class="java.lang.String">0.2</attribute>
		</attributes>
		<plan score="0.0" selected="yes">
			<activity type="home" x="4468401.5" y="5336448.0" end_time="13:26:01"/>
			<leg mode="car"/>
			<activity type="work" x="4463856.5" y="5335180.0" end_time="17:40:25"/>
			<leg mode="car"/>
			<activity type="home" x="4468401.5" y="5336448.0" end_time="37:26:01"/>
			<leg mode="car"/>
			<activity type="work" x="4463856.5" y="5335180.0" end_time="41:40:25"/>
			<leg mode="car"/>
			<activity type="home" x="4468401.5" y="5336448.0" end_time="61:26:01"/>
			<leg mode="car"/>
			<activity type="work" x="4463856.5" y="5335180.0" end_time="65:40:25"/>
			<leg mode="car"/>
			<activity type="home" x="4468401.5" y="5336448.0" end_time="85:26:01"/>
			<leg mode="car"/>
			<activity type="work" x="4463856.5" y="5335180.0" end_time="89:40:25"/>
			<leg mode="car"/>
			<activity type="home" x="4468401.5" y="5336448.0" end_time="109:26:01"/>
			<leg mode="car"/>
			<activity type="work" x="4463856.5" y="5335180.0" end_time="113:40:25"/>
			<leg mode="car"/>
			<activity type="home" x="4468401.5" y="5336448.0" end_time="133:26:01"/>
			<leg mode="car"/>
			<activity type="work" x="4463856.5" y="5335180.0" end_time="137:40:25"/>
			<leg mode="car"/>
			<activity type="home" x="4468401.5" y="5336448.0" end_time="157:26:01"/>
			<leg mode="car"/>
			<activity type="work" x="4463856.5" y="5335180.0" end_time="161:40:25"/>
			<leg mode="car"/>
			<activity type="home" x="4468401.5" y="5336448.0" end_time="181:26:01"/>
			<leg mode="car"/>
			<activity type="work" x="4463856.5" y="5335180.0" end_time="185:40:25"/>
			<leg mode="car"/>
			<activity type="home" x="4468401.5" y="5336448.0" end_time="205:26:01"/>
			<leg mode="car"/>
			<activity type="work" x="4463856.5" y="5335180.0" end_time="209:40:25"/>
			<leg mode="car"/>
			<activity type="home" x="4468401.5" y="5336448.0" end_time="229:26:01"/>
			<leg mode="car"/>
			<activity type="work" x="4463856.5" y="5335180.0" end_time="233:40:25"/>
			<leg mode="car"/>
			<activity type="home end" x="4468401.5" y="5336448.0"/>
		</plan>
	</person>
	<person id="3">
		<attributes>
			<attribute name="homeChargerPower" class="java.lang.String">11</attribute>
			<attribute name="rangeAnxietyThreshold" class="java.lang.String">0.2</attribute>
		</attributes>
		<plan score="0.0" selected="yes">
			<activity type="work" x="4460607.0" y="5341900.5" end_time="02:12:22"/>
			<leg mode="car"/>
			<activity type="home" x="4469525.0" y="5331011.0" end_time="13:38:23"/>
			<leg mode="car"/>
			<activity type="work" x="4460607.0" y="5341900.5" end_time="26:12:22"/>
			<leg mode="car"/>
			<activity type="home" x="4469525.0" y="5331011.0" end_time="37:38:23"/>
			<leg mode="car"/>
			<activity type="work" x="4460607.0" y="5341900.5" end_time="50:12:22"/>
			<leg mode="car"/>
			<activity type="home" x="4469525.0" y="5331011.0" end_time="61:38:23"/>
			<leg mode="car"/>
			<activity type="work" x="4460607.0" y="5341900.5" end_time="74:12:22"/>
			<leg mode="car"/>
			<activity type="home" x="4469525.0" y="5331011.0" end_time="85:38:23"/>
			<leg mode="car"/>
			<activity type="work" x="4460607.0" y="5341900.5" end_time="98:12:22"/>
			<leg mode="car"/>
			<activity type="home" x="4469525.0" y="5331011.0" end_time="109:38:23"/>
			<leg mode="car"/>
			<activity type="work" x="4460607.0" y="5341900.5" end_time="122:12:22"/>
			<leg mode="car"/>
			<activity type="home" x="4469525.0" y="5331011.0" end_time="133:38:23"/>
			<leg mode="car"/>
			<activity type="work" x="4460607.0" y="5341900.5" end_time="146:12:22"/>
			<leg mode="car"/>
			<activity type="home" x="4469525.0" y="5331011.0" end_time="157:38:23"/>
			<leg mode="car"/>
			<activity type="work" x="4460607.0" y="5341900.5" end_time="170:12:22"/>
			<leg mode="car"/>
			<activity type="home" x="4469525.0" y="5331011.0" end_time="181:38:23"/>
			<leg mode="car"/>
			<activity type="work" x="4460607.0" y="5341900.5" end_time="194:12:22"/>
			<leg mode="car"/>
			<activity type="home" x="4469525.0" y="5331011.0" end_time="205:38:23"/>
			<leg mode="car"/>
			<activity type="work" x="4460607.0" y="5341900.5" end_time="218:12:22"/>
			<leg mode="car"/>
			<activity type="home" x="4469525.0" y="5331011.0" end_time="229:38:23"/>
			<leg mode="car"/>
			<activity type="work end" x="4460607.0" y="5341900.5"/>
		</plan>
	</person>
	<person id="4">
		<attributes>
			<attribute name="homeChargerPower" class="java.lang.String">11</attribute>
			<attribute name="rangeAnxietyThreshold" class="java.lang.String">0.2</attribute>
		</attributes>
		<plan score="0.0" selected="yes">
			<activity type="home" x="4468605.5" y="5335147.5" end_time="07:57:59"/>
			<leg mode="car"/>
			<activity type="work" x="4474051.0" y="5335895.5" end_time="17:25:24"/>
			<leg mode="car"/>
			<activity type="home" x="4468605.5" y="5335147.5" end_time="31:57:59"/>
			<leg mode="car"/>
			<activity type="work" x="4474051.0" y="5335895.5" end_time="41:25:24"/>
			<leg mode="car"/>
			<activity type="home" x="4468605.5" y="5335147.5" end_time="55:57:59"/>
			<leg mode="car"/>
			<activity type="work" x="4474051.0" y="5335895.5" end_time="65:25:24"/>
			<leg mode="car"/>
			<activity type="home" x="4468605.5" y="5335147.5" end_time="79:57:59"/>
			<leg mode="car"/>
			<activity type="work" x="4474051.0" y="5335895.5" end_time="89:25:24"/>
			<leg mode="car"/>
			<activity type="home" x="4468605.5" y="5335147.5" end_time="103:57:59"/>
			<leg mode="car"/>
			<activity type="work" x="4474051.0" y="5335895.5" end_time="113:25:24"/>
			<leg mode="car"/>
			<activity type="home" x="4468605.5" y="5335147.5" end_time="127:57:59"/>
			<leg mode="car"/>
			<activity type="work" x="4474051.0" y="5335895.5" end_time="137:25:24"/>
			<leg mode="car"/>
			<activity type="home" x="4468605.5" y="5335147.5" end_time="151:57:59"/>
			<leg mode="car"/>
			<activity type="work" x="4474051.0" y="5335895.5" end_time="161:25:24"/>
			<leg mode="car"/>
			<activity type="home" x="4468605.5" y="5335147.5" end_time="175:57:59"/>
			<leg mode="car"/>
			<activity type="work" x="4474051.0" y="5335895.5" end_time="185:25:24"/>
			<leg mode="car"/>
			<activity type="home" x="4468605.5" y="5335147.5" end_time="199:57:59"/>
			<leg mode="car"/>
			<activity type="work" x="4474051.0" y="5335895.5" end_time="209:25:24"/>
			<leg mode="car"/>
			<activity type="home" x="4468605.5" y="5335147.5" end_time="223:57:59"/>
			<leg mode="car"/>
			<activity type="work" x="4474051.0" y="5335895.5" end_time="233:25:24"/>
			<leg mode="car"/>
			<activity type="home end" x="4468605.5" y="5335147.5"/>
		</plan>
	</person>
	<person id="5">
		<attributes>
			<attribute name="homeChargerPower" class="java.lang.String">11</attribute>
			<attribute name="rangeAnxietyThreshold" class="java.lang.String">0.2</attribute>
		</attributes>
		<plan score="0.0" selected="yes">
			<activity type="home" x="4463908.5" y="5332920.5" end_time="07:49:00"/>
			<leg mode="car"/>
			<activity type="work" x="4469850.5" y="5332160.0" end_time="18:10:49"/>
			<leg mode="car"/>
			<activity type="home" x="4463908.5" y="5332920.5" end_time="31:49:00"/>
			<leg mode="car"/>
			<activity type="work" x="4469850.5" y="5332160.0" end_time="42:10:49"/>
			<leg mode="car"/>
			<activity type="home" x="4463908.5" y="5332920.5" end_time="55:49:00"/>
			<leg mode="car"/>
			<activity type="work" x="4469850.5" y="5332160.0" end_time="66:10:49"/>
			<leg mode="car"/>
			<activity type="home" x="4463908.5" y="5332920.5" end_time="79:49:00"/>
			<leg mode="car"/>
			<activity type="work" x="4469850.5" y="5332160.0" end_time="90:10:49"/>
			<leg mode="car"/>
			<activity type="home" x="4463908.5" y="5332920.5" end_time="103:49:00"/>
			<leg mode="car"/>
			<activity type="work" x="4469850.5" y="5332160.0" end_time="114:10:49"/>
			<leg mode="car"/>
			<activity type="home" x="4463908.5" y="5332920.5" end_time="127:49:00"/>
			<leg mode="car"/>
			<activity type="work" x="4469850.5" y="5332160.0" end_time="138:10:49"/>
			<leg mode="car"/>
			<activity type="home" x="4463908.5" y="5332920.5" end_time="151:49:00"/>
			<leg mode="car"/>
			<activity type="work" x="4469850.5" y="5332160.0" end_time="162:10:49"/>
			<leg mode="car"/>
			<activity type="home" x="4463908.5" y="5332920.5" end_time="175:49:00"/>
			<leg mode="car"/>
			<activity type="work" x="4469850.5" y="5332160.0" end_time="186:10:49"/>
			<leg mode="car"/>
			<activity type="home" x="4463908.5" y="5332920.5" end_time="199:49:00"/>
			<leg mode="car"/>
			<activity type="work" x="4469850.5" y="5332160.0" end_time="210:10:49"/>
			<leg mode="car"/>
			<activity type="home" x="4463908.5" y="5332920.5" end_time="223:49:00"/>
			<leg mode="car"/>
			<activity type="work" x="4469850.5" y="5332160.0" end_time="234:10:49"/>
			<leg mode="car"/>
			<activity type="home end" x="4463908.5" y="5332920.5"/>
		</plan>
	</person>
	<person id="6">
		<attributes>
			<attribute name="homeChargerPower" class="java.lang.String">11</attribute>
			<attribute name="rangeAnxietyThreshold" class="java.lang.String">0.2</attribute>
		</attributes>
		<plan score="0.0" selected="yes">
			<activity type="home" x="4461040.0" y="5331997.5" end_time="07:24:18"/>
			<leg mode="car"/>
			<activity type="work" x="4466404.5" y="5333147.5" end_time="09:43:00"/>
			<leg mode="car"/>
			<activity type="home" x="4461040.0" y="5331997.5" end_time="31:24:18"/>
			<leg mode="car"/>
			<activity type="work" x="4466404.5" y="5333147.5" end_time="33:43:00"/>
			<leg mode="car"/>
			<activity type="home" x="4461040.0" y="5331997.5" end_time="55:24:18"/>
			<leg mode="car"/>
			<activity type="work" x="4466404.5" y="5333147.5" end_time="57:43:00"/>
			<leg mode="car"/>
			<activity type="home" x="4461040.0" y="5331997.5" end_time="79:24:18"/>
			<leg mode="car"/>
			<activity type="work" x="4466404.5" y="5333147.5" end_time="81:43:00"/>
			<leg mode="car"/>
			<activity type="home" x="4461040.0" y="5331997.5" end_time="103:24:18"/>
			<leg mode="car"/>
			<activity type="work" x="4466404.5" y="5333147.5" end_time="105:43:00"/>
			<leg mode="car"/>
			<activity type="home" x="4461040.0" y="5331997.5" end_time="127:24:18"/>
			<leg mode="car"/>
			<activity type="work" x="4466404.5" y="5333147.5" end_time="129:43:00"/>
			<leg mode="car"/>
			<activity type="home" x="4461040.0" y="5331997.5" end_time="151:24:18"/>
			<leg mode="car"/>
			<activity type="work" x="4466404.5" y="5333147.5" end_time="153:43:00"/>
			<leg mode="car"/>
			<activity type="home" x="4461040.0" y="5331997.5" end_time="175:24:18"/>
			<leg mode="car"/>
			<activity type="work" x="4466404.5" y="5333147.5" end_time="177:43:00"/>
			<leg mode="car"/>
			<activity type="home" x="4461040.0" y="5331997.5" end_time="199:24:18"/>
			<leg mode="car"/>
			<activity type="work" x="4466404.5" y="5333147.5" end_time="201:43:00"/>
			<leg mode="car"/>
			<activity type="home" x="4461040.0" y="5331997.5" end_time="223:24:18"/>
			<leg mode="car"/>
			<activity type="work" x="4466404.5" y="5333147.5" end_time="225:43:00"/>
			<leg mode="car"/>
			<activity type="home end" x="4461040.0" y="5331997.5"/>
		</plan>
	</person>
	<person id="7">
		<attributes>
			<attribute name="homeChargerPower" class="java.lang.String">11</attribute>
			<attribute name="workChargerPower" class="java.lang.String">11</attribute>
			<attribute name="rangeAnxietyThreshold" class="java.lang.String">0.2</attribute>
		</attributes>
		<plan score="0.0" selected="yes">
			<activity type="home" x="4467608.5" y="5338661.5" end_time="07:07:40"/>
			<leg mode="car"/>
			<activity type="work" x="4464346.970120871" y="5328836.790912115" end_time="16:28:46"/>
			<leg mode="car"/>
			<activity type="home" x="4467608.5" y="5338661.5" end_time="31:07:40"/>
			<leg mode="car"/>
			<activity type="work" x="4464346.970120871" y="5328836.790912115" end_time="40:28:46"/>
			<leg mode="car"/>
			<activity type="home" x="4467608.5" y="5338661.5" end_time="55:07:40"/>
			<leg mode="car"/>
			<activity type="work" x="4464346.970120871" y="5328836.790912115" end_time="64:28:46"/>
			<leg mode="car"/>
			<activity type="home" x="4467608.5" y="5338661.5" end_time="79:07:40"/>
			<leg mode="car"/>
			<activity type="work" x="4464346.970120871" y="5328836.790912115" end_time="88:28:46"/>
			<leg mode="car"/>
			<activity type="home" x="4467608.5" y="5338661.5" end_time="103:07:40"/>
			<leg mode="car"/>
			<activity type="work" x="4464346.970120871" y="5328836.790912115" end_time="112:28:46"/>
			<leg mode="car"/>
			<activity type="home" x="4467608.5" y="5338661.5" end_time="127:07:40"/>
			<leg mode="car"/>
			<activity type="work" x="4464346.970120871" y="5328836.790912115" end_time="136:28:46"/>
			<leg mode="car"/>
			<activity type="home" x="4467608.5" y="5338661.5" end_time="151:07:40"/>
			<leg mode="car"/>
			<activity type="work" x="4464346.970120871" y="5328836.790912115" end_time="160:28:46"/>
			<leg mode="car"/>
			<activity type="home" x="4467608.5" y="5338661.5" end_time="175:07:40"/>
			<leg mode="car"/>
			<activity type="work" x="4464346.970120871" y="5328836.790912115" end_time="184:28:46"/>
			<leg mode="car"/>
			<activity type="home" x="4467608.5" y="5338661.5" end_time="199:07:40"/>
			<leg mode="car"/>
			<activity type="work" x="4464346.970120871" y="5328836.790912115" end_time="208:28:46"/>
			<leg mode="car"/>
			<activity type="home" x="4467608.5" y="5338661.5" end_time="223:07:40"/>
			<leg mode="car"/>
			<activity type="work" x="4464346.970120871" y="5328836.790912115" end_time="232:28:46"/>
			<leg mode="car"/>
			<activity type="home end" x="4467608.5" y="5338661.5"/>
		</plan>
	</person>
	<person id="8">
		<attributes>
			<attribute name="homeChargerPower" class="java.lang.String">11</attribute>
			<attribute name="rangeAnxietyThreshold" class="java.lang.String">0.2</attribute>
		</attributes>
		<plan score="0.0" selected="yes">
			<activity type="work" x="4465321.5" y="5337211.0" end_time="08:40:38"/>
			<leg mode="car"/>
			<activity type="home" x="4463011.5" y="5339000.5" end_time="18:33:42"/>
			<leg mode="car"/>
			<activity type="work" x="4465321.5" y="5337211.0" end_time="32:40:38"/>
			<leg mode="car"/>
			<activity type="home" x="4463011.5" y="5339000.5" end_time="42:33:42"/>
			<leg mode="car"/>
			<activity type="work" x="4465321.5" y="5337211.0" end_time="56:40:38"/>
			<leg mode="car"/>
			<activity type="home" x="4463011.5" y="5339000.5" end_time="66:33:42"/>
			<leg mode="car"/>
			<activity type="work" x="4465321.5" y="5337211.0" end_time="80:40:38"/>
			<leg mode="car"/>
			<activity type="home" x="4463011.5" y="5339000.5" end_time="90:33:42"/>
			<leg mode="car"/>
			<activity type="work" x="4465321.5" y="5337211.0" end_time="104:40:38"/>
			<leg mode="car"/>
			<activity type="home" x="4463011.5" y="5339000.5" end_time="114:33:42"/>
			<leg mode="car"/>
			<activity type="work" x="4465321.5" y="5337211.0" end_time="128:40:38"/>
			<leg mode="car"/>
			<activity type="home" x="4463011.5" y="5339000.5" end_time="138:33:42"/>
			<leg mode="car"/>
			<activity type="work" x="4465321.5" y="5337211.0" end_time="152:40:38"/>
			<leg mode="car"/>
			<activity type="home" x="4463011.5" y="5339000.5" end_time="162:33:42"/>
			<leg mode="car"/>
			<activity type="work" x="4465321.5" y="5337211.0" end_time="176:40:38"/>
			<leg mode="car"/>
			<activity type="home" x="4463011.5" y="5339000.5" end_time="186:33:42"/>
			<leg mode="car"/>
			<activity type="work" x="4465321.5" y="5337211.0" end_time="200:40:38"/>
			<leg mode="car"/>
			<activity type="home" x="4463011.5" y="5339000.5" end_time="210:33:42"/>
			<leg mode="car"/>
			<activity type="work" x="4465321.5" y="5337211.0" end_time="224:40:38"/>
			<leg mode="car"/>
			<activity type="home" x="4463011.5" y="5339000.5" end_time="234:33:42"/>
			<leg mode="car"/>
			<activity type="work end" x="4465321.5" y="5337211.0"/>
		</plan>
	</person>
	<person id="9">
		<attributes>
			<attribute name="homeChargerPower" class="java.lang.String">11</attribute>
			<attribute name="rangeAnxietyThreshold" class="java.lang.String">0.2</attribute>
		</attributes>
		<plan score="0.0" selected="yes">
			<activity type="home" x="4469650.0" y="5337311.5" end_time="07:43:26"/>
			<leg mode="car"/>
			<activity type="work" x="4465064.0" y="5338198.0" end_time="16:53:25"/>
			<leg mode="car"/>
			<activity type="home" x="4469650.0" y="5337311.5" end_time="31:43:26"/>
			<leg mode="car"/>
			<activity type="work" x="4465064.0" y="5338198.0" end_time="40:53:25"/>
			<leg mode="car"/>
			<activity type="home" x="4469650.0" y="5337311.5" end_time="55:43:26"/>
			<leg mode="car"/>
			<activity type="work" x="4465064.0" y="5338198.0" end_time="64:53:25"/>
			<leg mode="car"/>
			<activity type="home" x="4469650.0" y="5337311.5" end_time="79:43:26"/>
			<leg mode="car"/>
			<activity type="work" x="4465064.0" y="5338198.0" end_time="88:53:25"/>
			<leg mode="car"/>
			<activity type="home" x="4469650.0" y="5337311.5" end_time="103:43:26"/>
			<leg mode="car"/>
			<activity type="work" x="4465064.0" y="5338198.0" end_time="112:53:25"/>
			<leg mode="car"/>
			<activity type="home" x="4469650.0" y="5337311.5" end_time="127:43:26"/>
			<leg mode="car"/>
			<activity type="work" x="4465064.0" y="5338198.0" end_time="136:53:25"/>
			<leg mode="car"/>
			<activity type="home" x="4469650.0" y="5337311.5" end_time="151:43:26"/>
			<leg mode="car"/>
			<activity type="work" x="4465064.0" y="5338198.0" end_time="160:53:25"/>
			<leg mode="car"/>
			<activity type="home" x="4469650.0" y="5337311.5" end_time="175:43:26"/>
			<leg mode="car"/>
			<activity type="work" x="4465064.0" y="5338198.0" end_time="184:53:25"/>
			<leg mode="car"/>
			<activity type="home" x="4469650.0" y="5337311.5" end_time="199:43:26"/>
			<leg mode="car"/>
			<activity type="work" x="4465064.0" y="5338198.0" end_time="208:53:25"/>
			<leg mode="car"/>
			<activity type="home" x="4469650.0" y="5337311.5" end_time="223:43:26"/>
			<leg mode="car"/>
			<activity type="work" x="4465064.0" y="5338198.0" end_time="232:53:25"/>
			<leg mode="car"/>
			<activity type="home end" x="4469650.0" y="5337311.5"/>
		</plan>
	</person>
	<person id="10">
		<attributes>
			<attribute name="rangeAnxietyThreshold" class="java.lang.String">0.2</attribute>
		</attributes>
		<plan score="0.0" selected="yes">
			<activity type="home" x="4472275.0" y="5330731.0" end_time="05:30:03"/>
			<leg mode="car"/>
			<activity type="work" x="4459047.0" y="5336517.5" end_time="14:30:46"/>
			<leg mode="car"/>
			<activity type="home" x="4472275.0" y="5330731.0" end_time="29:30:03"/>
			<leg mode="car"/>
			<activity type="work" x="4459047.0" y="5336517.5" end_time="38:30:46"/>
			<leg mode="car"/>
			<activity type="home" x="4472275.0" y="5330731.0" end_time="53:30:03"/>
			<leg mode="car"/>
			<activity type="work" x="4459047.0" y="5336517.5" end_time="62:30:46"/>
			<leg mode="car"/>
			<activity type="home" x="4472275.0" y="5330731.0" end_time="77:30:03"/>
			<leg mode="car"/>
			<activity type="work" x="4459047.0" y="5336517.5" end_time="86:30:46"/>
			<leg mode="car"/>
			<activity type="home" x="4472275.0" y="5330731.0" end_time="101:30:03"/>
			<leg mode="car"/>
			<activity type="work" x="4459047.0" y="5336517.5" end_time="110:30:46"/>
			<leg mode="car"/>
			<activity type="home" x="4472275.0" y="5330731.0" end_time="125:30:03"/>
			<leg mode="car"/>
			<activity type="work" x="4459047.0" y="5336517.5" end_time="134:30:46"/>
			<leg mode="car"/>
			<activity type="home" x="4472275.0" y="5330731.0" end_time="149:30:03"/>
			<leg mode="car"/>
			<activity type="work" x="4459047.0" y="5336517.5" end_time="158:30:46"/>
			<leg mode="car"/>
			<activity type="home" x="4472275.0" y="5330731.0" end_time="173:30:03"/>
			<leg mode="car"/>
			<activity type="work" x="4459047.0" y="5336517.5" end_time="182:30:46"/>
			<leg mode="car"/>
			<activity type="home" x="4472275.0" y="5330731.0" end_time="197:30:03"/>
			<leg mode="car"/>
			<activity type="work" x="4459047.0" y="5336517.5" end_time="206:30:46"/>
			<leg mode="car"/>
			<activity type="home" x="4472275.0" y="5330731.0" end_time="221:30:03"/>
			<leg mode="car"/>
			<activity type="work" x="4459047.0" y="5336517.5" end_time="230:30:46"/>
			<leg mode="car"/>
			<activity type="home end" x="4472275.0" y="5330731.0"/>
		</plan>
	</person>
	<person id="11">
		<attributes>
			<attribute name="homeChargerPower" class="java.lang.String">11</attribute>
			<attribute name="rangeAnxietyThreshold" class="java.lang.String">0.2</attribute>
		</attributes>
		<plan score="0.0" selected="yes">
			<activity type="work" x="4466501.0" y="5341037.0" end_time="00:47:52"/>
			<leg mode="car"/>
			<activity type="home" x="4473723.5" y="5333869.5" end_time="15:07:32"/>
			<leg mode="car"/>
			<activity type="work" x="4466501.0" y="5341037.0" end_time="24:47:52"/>
			<leg mode="car"/>
			<activity type="home" x="4473723.5" y="5333869.5" end_time="39:07:32"/>
			<leg mode="car"/>
			<activity type="work" x="4466501.0" y="5341037.0" end_time="48:47:52"/>
			<leg mode="car"/>
			<activity type="home" x="4473723.5" y="5333869.5" end_time="63:07:32"/>
			<leg mode="car"/>
			<activity type="work" x="4466501.0" y="5341037.0" end_time="72:47:52"/>
			<leg mode="car"/>
			<activity type="home" x="4473723.5" y="5333869.5" end_time="87:07:32"/>
			<leg mode="car"/>
			<activity type="work" x="4466501.0" y="5341037.0" end_time="96:47:52"/>
			<leg mode="car"/>
			<activity type="home" x="4473723.5" y="5333869.5" end_time="111:07:32"/>
			<leg mode="car"/>
			<activity type="work" x="4466501.0" y="5341037.0" end_time="120:47:52"/>
			<leg mode="car"/>
			<activity type="home" x="4473723.5" y="5333869.5" end_time="135:07:32"/>
			<leg mode="car"/>
			<activity type="work" x="4466501.0" y="5341037.0" end_time="144:47:52"/>
			<leg mode="car"/>
			<activity type="home" x="4473723.5" y="5333869.5" end_time="159:07:32"/>
			<leg mode="car"/>
			<activity type="work" x="4466501.0" y="5341037.0" end_time="168:47:52"/>
			<leg mode="car"/>
			<activity type="home" x="4473723.5" y="5333869.5" end_time="183:07:32"/>
			<leg mode="car"/>
			<activity type="work" x="4466501.0" y="5341037.0" end_time="192:47:52"/>
			<leg mode="car"/>
			<activity type="home" x="4473723.5" y="5333869.5" end_time="207:07:32"/>
			<leg mode="car"/>
			<activity type="work" x="4466501.0" y="5341037.0" end_time="216:47:52"/>
			<leg mode="car"/>
			<activity type="home" x="4473723.5" y="5333869.5" end_time="231:07:32"/>
			<leg mode="car"/>
			<activity type="work end" x="4466501.0" y="5341037.0"/>
		</plan>
	</person>
	<person id="12">
		<attributes>
			<attribute name="workChargerPower" class="java.lang.String">11</attribute>
			<attribute name="rangeAnxietyThreshold" class="java.lang.String">0.2</attribute>
		</attributes>
		<plan score="0.0" selected="yes">
			<activity type="home" x="4461281.0" y="5330868.0" end_time="07:04:47"/>
			<leg mode="car"/>
			<activity type="work" x="4468998.0" y="5339310.0" end_time="09:46:20"/>
			<leg mode="car"/>
			<activity type="home" x="4461281.0" y="5330868.0" end_time="31:04:47"/>
			<leg mode="car"/>
			<activity type="work" x="4468998.0" y="5339310.0" end_time="33:46:20"/>
			<leg mode="car"/>
			<activity type="home" x="4461281.0" y="5330868.0" end_time="55:04:47"/>
			<leg mode="car"/>
			<activity type="work" x="4468998.0" y="5339310.0" end_time="57:46:20"/>
			<leg mode="car"/>
			<activity type="home" x="4461281.0" y="5330868.0" end_time="79:04:47"/>
			<leg mode="car"/>
			<activity type="work" x="4468998.0" y="5339310.0" end_time="81:46:20"/>
			<leg mode="car"/>
			<activity type="home" x="4461281.0" y="5330868.0" end_time="103:04:47"/>
			<leg mode="car"/>
			<activity type="work" x="4468998.0" y="5339310.0" end_time="105:46:20"/>
			<leg mode="car"/>
			<activity type="home" x="4461281.0" y="5330868.0" end_time="127:04:47"/>
			<leg mode="car"/>
			<activity type="work" x="4468998.0" y="5339310.0" end_time="129:46:20"/>
			<leg mode="car"/>
			<activity type="home" x="4461281.0" y="5330868.0" end_time="151:04:47"/>
			<leg mode="car"/>
			<activity type="work" x="4468998.0" y="5339310.0" end_time="153:46:20"/>
			<leg mode="car"/>
			<activity type="home" x="4461281.0" y="5330868.0" end_time="175:04:47"/>
			<leg mode="car"/>
			<activity type="work" x="4468998.0" y="5339310.0" end_time="177:46:20"/>
			<leg mode="car"/>
			<activity type="home" x="4461281.0" y="5330868.0" end_time="199:04:47"/>
			<leg mode="car"/>
			<activity type="work" x="4468998.0" y="5339310.0" end_time="201:46:20"/>
			<leg mode="car"/>
			<activity type="home" x="4461281.0" y="5330868.0" end_time="223:04:47"/>
			<leg mode="car"/>
			<activity type="work" x="4468998.0" y="5339310.0" end_time="225:46:20"/>
			<leg mode="car"/>
			<activity type="home end" x="4461281.0" y="5330868.0"/>
		</plan>
	</person>
	<person id="13">
		<attributes>
			<attribute name="homeChargerPower" class="java.lang.String">11</attribute>
			<attribute name="rangeAnxietyThreshold" class="java.lang.String">0.2</attribute>
		</attributes>
		<plan score="0.0" selected="yes">
			<activity type="home" x="4473053.5" y="5333950.5" end_time="08:46:30"/>
			<leg mode="car"/>
			<activity type="work" x="4474064.0" y="5327973.5" end_time="20:19:18"/>
			<leg mode="car"/>